
#======================================================================
# CRYSTAL DATA
#----------------------------------------------------------------------
data_VESTA_phase_1

_chemical_name_common                  'Fe2 Co2 H4'
_cell_length_a                         2.645345
_cell_length_b                         2.645314
_cell_length_c                         8.539476
_cell_angle_alpha                      90.000000
_cell_angle_beta                       90.000000
_cell_angle_gamma                      120.000381
_cell_volume                           51.751119
_space_group_name_H-M_alt              'P6_3/mmc'
_space_group_IT_number                 194

loop_
_space_group_symop_operation_xyz
   'x, y, z'

loop_
   _atom_site_label
   _atom_site_occupancy
   _atom_site_fract_x
   _atom_site_fract_y
   _atom_site_fract_z
   _atom_site_adp_type
   _atom_site_U_iso_or_equiv
   _atom_site_type_symbol
   Fe1        1.0     0.666666     0.333332     0.250000    Uiso  ? Fe
   Fe2        1.0     0.333334     0.666668     0.750000    Uiso  ? Fe
   Co1        1.0     -0.000000     -0.000000     0.000000    Uiso  ? Co
   Co2        1.0     0.000000     0.000000     0.500000    Uiso  ? Co
   H1         1.0     0.666709     0.333418     0.884382    Uiso  ? H
   H2         1.0     0.333291     0.666582     0.115617    Uiso  ? H
   H3         1.0     0.333291     0.666582     0.384383    Uiso  ? H
   H4         1.0     0.666709     0.333418     0.615618    Uiso  ? H
